<?xml version="1.0" encoding="UTF-8"?>

<!-- generated on 2025-07-31 19:51:30 by Eclipse SUMO netedit Version 1.21.0
-->

<additional xmlns:xsi="http://www.w3.org/2001/XMLSchema-instance" xsi:noNamespaceSchemaLocation="http://sumo.dlr.de/xsd/additional_file.xsd">
    <!-- Detectors -->
    <inductionLoop id="G420151001000110010_0" lane="-5004_0" pos="76.99" period="300.00" file="e1/G420151001000110010_0.xml"/>
    <inductionLoop id="G420151001000110010_1" lane="-5004_1" pos="76.99" period="300.00" file="e1/G420151001000110010_1.xml"/>
    <inductionLoop id="G420151001000110010_2" lane="-5004_2" pos="76.99" period="300.00" file="e1/G420151001000110010_2.xml"/>
    <inductionLoop id="G420151001000120010_0" lane="-11324.141_0" pos="35.42" period="300.00" file="e1/G420151001000120010_0.xml"/>
    <inductionLoop id="G420151001000120010_1" lane="-11324.141_1" pos="35.42" period="300.00" file="e1/G420151001000120010_1.xml"/>
    <inductionLoop id="G420151001000120010_2" lane="-11324.141_2" pos="35.42" period="300.00" file="e1/G420151001000120010_2.xml"/>
    <inductionLoop id="G420151001000210010_0" lane="-3492_0" pos="126.20" period="300.00" file="e1/G420151001000210010_0.xml"/>
    <inductionLoop id="G420151001000210010_1" lane="-3492_1" pos="126.20" period="300.00" file="e1/G420151001000210010_1.xml"/>
    <inductionLoop id="G420151001000210010_2" lane="-3492_2" pos="126.20" period="300.00" file="e1/G420151001000210010_2.xml"/>
    <inductionLoop id="G420151001000220010_0" lane="-3162_0" pos="104.93" period="300.00" file="e1/G420151001000220010_0.xml"/>
    <inductionLoop id="G420151001000220010_1" lane="-3162_1" pos="104.93" period="300.00" file="e1/G420151001000220010_1.xml"/>
    <inductionLoop id="G420151001000220010_2" lane="-3162_2" pos="104.93" period="300.00" file="e1/G420151001000220010_2.xml"/>
    <inductionLoop id="G420151001000310010_0" lane="-9648_0" pos="171.87" period="300.00" file="e1/G420151001000310010_0.xml"/>
    <inductionLoop id="G420151001000310010_1" lane="-9648_1" pos="171.87" period="300.00" file="e1/G420151001000310010_1.xml"/>
    <inductionLoop id="G420151001000310010_2" lane="-9648_2" pos="171.87" period="300.00" file="e1/G420151001000310010_2.xml"/>
    <inductionLoop id="G420151001000320010_0" lane="-5882.98_0" pos="986.20" period="300.00" file="e1/G420151001000320010_0.xml"/>
    <inductionLoop id="G420151001000320010_1" lane="-5882.98_1" pos="986.20" period="300.00" file="e1/G420151001000320010_1.xml"/>
    <inductionLoop id="G420151001000320010_2" lane="-5882.98_2" pos="986.20" period="300.00" file="e1/G420151001000320010_2.xml"/>
    <inductionLoop id="G420151001000410010_0" lane="-16766_0" pos="37.38" period="300.00" file="e1/G420151001000410010_0.xml"/>
    <inductionLoop id="G420151001000410010_1" lane="-16766_1" pos="37.38" period="300.00" file="e1/G420151001000410010_1.xml"/>
    <inductionLoop id="G420151001000410010_2" lane="-16766_2" pos="37.38" period="300.00" file="e1/G420151001000410010_2.xml"/>
    <inductionLoop id="G420151001000420010_0" lane="-15494.2377_0" pos="1182.39" period="300.00" file="e1/G420151001000420010_0.xml"/>
    <inductionLoop id="G420151001000420010_1" lane="-15494.2377_1" pos="1182.39" period="300.00" file="e1/G420151001000420010_1.xml"/>
    <inductionLoop id="G420151001000420010_2" lane="-15494.2377_2" pos="1182.39" period="300.00" file="e1/G420151001000420010_2.xml"/>
    <inductionLoop id="G420151001000510010_0" lane="-16228.95_0" pos="555.15" period="300.00" file="e1/G420151001000510010_0.xml"/>
    <inductionLoop id="G420151001000510010_1" lane="-16228.95_1" pos="555.15" period="300.00" file="e1/G420151001000510010_1.xml"/>
    <inductionLoop id="G420151001000510010_2" lane="-16228.95_2" pos="555.15" period="300.00" file="e1/G420151001000510010_2.xml"/>
    <inductionLoop id="G420151001000520010_0" lane="-16282_0" pos="540.90" period="300.00" file="e1/G420151001000520010_0.xml"/>
    <inductionLoop id="G420151001000520010_1" lane="-16282_1" pos="540.90" period="300.00" file="e1/G420151001000520010_1.xml"/>
    <inductionLoop id="G420151001000520010_2" lane="-16282_2" pos="540.90" period="300.00" file="e1/G420151001000520010_2.xml"/>
    <inductionLoop id="G420151001000610010_0" lane="-2266_0" pos="1333.15" period="300.00" file="e1/G420151001000610010_0.xml"/>
    <inductionLoop id="G420151001000610010_1" lane="-2266_1" pos="1333.15" period="300.00" file="e1/G420151001000610010_1.xml"/>
    <inductionLoop id="G420151001000610010_2" lane="-2266_2" pos="1333.15" period="300.00" file="e1/G420151001000610010_2.xml"/>
    <inductionLoop id="G420151001000620010_0" lane="-10034.151_0" pos="681.29" period="300.00" file="e1/G420151001000620010_0.xml"/>
    <inductionLoop id="G420151001000620010_1" lane="-10034.151_1" pos="681.29" period="300.00" file="e1/G420151001000620010_1.xml"/>
    <inductionLoop id="G420151001000620010_2" lane="-10034.151_2" pos="681.29" period="300.00" file="e1/G420151001000620010_2.xml"/>
    <inductionLoop id="G420151001000710010_0" lane="-6692_0" pos="168.02" period="300.00" file="e1/G420151001000710010_0.xml"/>
    <inductionLoop id="G420151001000710010_1" lane="-6692_1" pos="168.02" period="300.00" file="e1/G420151001000710010_1.xml"/>
    <inductionLoop id="G420151001000710010_2" lane="-6692_2" pos="168.02" period="300.00" file="e1/G420151001000710010_2.xml"/>
    <inductionLoop id="G420151001000720010_0" lane="-14840_0" pos="484.90" period="300.00" file="e1/G420151001000720010_0.xml"/>
    <inductionLoop id="G420151001000720010_1" lane="-14840_1" pos="484.90" period="300.00" file="e1/G420151001000720010_1.xml"/>
    <inductionLoop id="G420151001000720010_2" lane="-14840_2" pos="484.90" period="300.00" file="e1/G420151001000720010_2.xml"/>
    <inductionLoop id="G420151001000810010_0" lane="-14078_0" pos="105.27" period="300.00" file="e1/G420151001000810010_0.xml"/>
    <inductionLoop id="G420151001000810010_1" lane="-14078_1" pos="105.27" period="300.00" file="e1/G420151001000810010_1.xml"/>
    <inductionLoop id="G420151001000810010_2" lane="-14078_2" pos="105.27" period="300.00" file="e1/G420151001000810010_2.xml"/>
    <inductionLoop id="G420151001000820010_1" lane="-7678_1" pos="154.43" period="300.00" file="e1/G420151001000820010_1.xml"/>
    <inductionLoop id="G420151001000820010_2" lane="-7678_2" pos="154.43" period="300.00" file="e1/G420151001000820010_2.xml"/>
    <inductionLoop id="G420151001000820010_3" lane="-7678_3" pos="154.43" period="300.00" file="e1/G420151001000820010_3.xml"/>
    <inductionLoop id="G420151001000910010_0" lane="-2602.118_0" pos="97.55" period="300.00" file="e1/G420151001000910010_0.xml"/>
    <inductionLoop id="G420151001000910010_1" lane="-2602.118_1" pos="97.55" period="300.00" file="e1/G420151001000910010_1.xml"/>
    <inductionLoop id="G420151001000910010_2" lane="-2602.118_2" pos="97.55" period="300.00" file="e1/G420151001000910010_2.xml"/>
    <inductionLoop id="G420151001000920010_1" lane="-6638.218_1" pos="875.90" period="300.00" file="e1/G420151001000920010_1.xml"/>
    <inductionLoop id="G420151001000920010_2" lane="-6638.218_2" pos="875.90" period="300.00" file="e1/G420151001000920010_2.xml"/>
    <inductionLoop id="G420151001000920010_3" lane="-6638.218_3" pos="875.90" period="300.00" file="e1/G420151001000920010_3.xml"/>
    <inductionLoop id="G420151001001010010_0" lane="-9142_0" pos="143.65" period="300.00" file="e1/G420151001001010010_0.xml"/>
    <inductionLoop id="G420151001001010010_1" lane="-9142_1" pos="143.65" period="300.00" file="e1/G420151001001010010_1.xml"/>
    <inductionLoop id="G420151001001010010_2" lane="-9142_2" pos="143.65" period="300.00" file="e1/G420151001001010010_2.xml"/>
    <inductionLoop id="G420151001001020010_1" lane="-8502_1" pos="377.55" period="300.00" file="e1/G420151001001020010_1.xml"/>
    <inductionLoop id="G420151001001020010_2" lane="-8502_2" pos="377.55" period="300.00" file="e1/G420151001001020010_2.xml"/>
    <inductionLoop id="G420151001001020010_3" lane="-8502_3" pos="377.55" period="300.00" file="e1/G420151001001020010_3.xml"/>
    <inductionLoop id="G420151001001110010_0" lane="-5664_0" pos="359.40" period="300.00" file="e1/G420151001001110010_0.xml"/>
    <inductionLoop id="G420151001001110010_1" lane="-5664_1" pos="359.40" period="300.00" file="e1/G420151001001110010_1.xml"/>
    <inductionLoop id="G420151001001110010_2" lane="-5664_2" pos="359.40" period="300.00" file="e1/G420151001001110010_2.xml"/>
    <inductionLoop id="G420151001001120010_1" lane="-15344_1" pos="615.16" period="300.00" file="e1/G420151001001120010_1.xml"/>
    <inductionLoop id="G420151001001120010_2" lane="-15344_2" pos="615.16" period="300.00" file="e1/G420151001001120010_2.xml"/>
    <inductionLoop id="G420151001001120010_3" lane="-15344_3" pos="615.16" period="300.00" file="e1/G420151001001120010_3.xml"/>
    <inductionLoop id="G420151001001210010_0" lane="-760_0" pos="213.16" period="300.00" file="e1/G420151001001210010_0.xml"/>
    <inductionLoop id="G420151001001210010_1" lane="-760_1" pos="213.16" period="300.00" file="e1/G420151001001210010_1.xml"/>
    <inductionLoop id="G420151001001210010_2" lane="-760_2" pos="213.16" period="300.00" file="e1/G420151001001210010_2.xml"/>
    <inductionLoop id="G420151001001220010_1" lane="-11526_1" pos="892.43" period="300.00" file="e1/G420151001001220010_1.xml"/>
    <inductionLoop id="G420151001001220010_2" lane="-11526_2" pos="892.43" period="300.00" file="e1/G420151001001220010_2.xml"/>
    <inductionLoop id="G420151001001220010_3" lane="-11526_3" pos="892.43" period="300.00" file="e1/G420151001001220010_3.xml"/>
    <inductionLoop id="G420151001001310010_0" lane="-6140_0" pos="97.04" period="300.00" file="e1/G420151001001310010_0.xml"/>
    <inductionLoop id="G420151001001310010_1" lane="-6140_1" pos="97.04" period="300.00" file="e1/G420151001001310010_1.xml"/>
    <inductionLoop id="G420151001001310010_2" lane="-6140_2" pos="97.04" period="300.00" file="e1/G420151001001310010_2.xml"/>
    <inductionLoop id="G420151001001310010_3" lane="-6140_1" pos="97.04" period="300.00" file="e1/G420151001001310010_3.xml"/>
    <inductionLoop id="G420151001001310010_4" lane="-6140_2" pos="97.04" period="300.00" file="e1/G420151001001310010_4.xml"/>
    <inductionLoop id="G420151001001320010_1" lane="-13696_1" pos="118.14" period="300.00" file="e1/G420151001001320010_1.xml"/>
    <inductionLoop id="G420151001001320010_2" lane="-13696_2" pos="118.14" period="300.00" file="e1/G420151001001320010_2.xml"/>
    <inductionLoop id="G420151001001320010_3" lane="-13696_3" pos="118.14" period="300.00" file="e1/G420151001001320010_3.xml"/>
    <inductionLoop id="G420151001001320010_4" lane="-13696_4" pos="118.14" period="300.00" file="e1/G420151001001320010_4.xml"/>
    <inductionLoop id="G420151001001320010_5" lane="-13696_5" pos="118.14" period="300.00" file="e1/G420151001001320010_5.xml"/>
    <inductionLoop id="G420151002000110010_0" lane="-3144_0" pos="1486.05" period="300.00" file="e1/G420151002000110010_0.xml"/>
    <inductionLoop id="G420151002000110010_1" lane="-3144_1" pos="1486.05" period="300.00" file="e1/G420151002000110010_1.xml"/>
    <inductionLoop id="G420151002000110010_2" lane="-3144_2" pos="1486.05" period="300.00" file="e1/G420151002000110010_2.xml"/>
    <inductionLoop id="G420151002000120010_0" lane="-14706_0" pos="417.92" period="300.00" file="e1/G420151002000120010_0.xml"/>
    <inductionLoop id="G420151002000120010_1" lane="-14706_1" pos="417.92" period="300.00" file="e1/G420151002000120010_1.xml"/>
    <inductionLoop id="G420151002000120010_2" lane="-14706_2" pos="417.92" period="300.00" file="e1/G420151002000120010_2.xml"/>
    <inductionLoop id="G420151002000210010_0" lane="-10376.203_0" pos="593.03" period="300.00" file="e1/G420151002000210010_0.xml"/>
    <inductionLoop id="G420151002000210010_1" lane="-10376.203_1" pos="593.03" period="300.00" file="e1/G420151002000210010_1.xml"/>
    <inductionLoop id="G420151002000210010_2" lane="-10376.203_2" pos="593.03" period="300.00" file="e1/G420151002000210010_2.xml"/>
    <inductionLoop id="G420151002000220010_0" lane="-6906_0" pos="561.85" period="300.00" file="e1/G420151002000220010_0.xml"/>
    <inductionLoop id="G420151002000220010_1" lane="-6906_1" pos="561.85" period="300.00" file="e1/G420151002000220010_1.xml"/>
    <inductionLoop id="G420151002000220010_2" lane="-6906_2" pos="561.85" period="300.00" file="e1/G420151002000220010_2.xml"/>
    <inductionLoop id="G420151002000310010_0" lane="-7022_0" pos="688.34" period="300.00" file="e1/G420151002000310010_0.xml"/>
    <inductionLoop id="G420151002000310010_1" lane="-7022_1" pos="688.34" period="300.00" file="e1/G420151002000310010_1.xml"/>
    <inductionLoop id="G420151002000310010_2" lane="-7022_2" pos="688.34" period="300.00" file="e1/G420151002000310010_2.xml"/>
    <inductionLoop id="G420151002000320010_0" lane="-11256_0" pos="692.66" period="300.00" file="e1/G420151002000320010_0.xml"/>
    <inductionLoop id="G420151002000320010_1" lane="-11256_1" pos="692.66" period="300.00" file="e1/G420151002000320010_1.xml"/>
    <inductionLoop id="G420151002000320010_2" lane="-11256_2" pos="692.66" period="300.00" file="e1/G420151002000320010_2.xml"/>
    <inductionLoop id="G420151002000410010_0" lane="-10892_0" pos="359.14" period="300.00" file="e1/G420151002000410010_0.xml"/>
    <inductionLoop id="G420151002000410010_1" lane="-10892_1" pos="359.14" period="300.00" file="e1/G420151002000410010_1.xml"/>
    <inductionLoop id="G420151002000410010_2" lane="-10892_2" pos="359.14" period="300.00" file="e1/G420151002000410010_2.xml"/>
    <inductionLoop id="G420151002000410010_3" lane="-10892_3" pos="359.14" period="300.00" file="e1/G420151002000410010_3.xml"/>
    <inductionLoop id="G420151002000420010_0" lane="-1698_0" pos="347.02" period="300.00" file="e1/G420151002000420010_0.xml"/>
    <inductionLoop id="G420151002000420010_1" lane="-1698_1" pos="347.02" period="300.00" file="e1/G420151002000420010_1.xml"/>
    <inductionLoop id="G420151002000420010_2" lane="-1698_2" pos="347.02" period="300.00" file="e1/G420151002000420010_2.xml"/>
    <inductionLoop id="G420151002000420010_3" lane="-1698_3" pos="347.02" period="300.00" file="e1/G420151002000420010_3.xml"/>
    <inductionLoop id="G420151002000510010_0" lane="-1736_0" pos="991.48" period="300.00" file="e1/G420151002000510010_0.xml"/>
    <inductionLoop id="G420151002000510010_1" lane="-1736_1" pos="991.48" period="300.00" file="e1/G420151002000510010_1.xml"/>
    <inductionLoop id="G420151002000510010_2" lane="-1736_2" pos="991.48" period="300.00" file="e1/G420151002000510010_2.xml"/>
    <inductionLoop id="G420151002000520010_0" lane="-9366_0" pos="52.76" period="300.00" file="e1/G420151002000520010_0.xml"/>
    <inductionLoop id="G420151002000520010_1" lane="-9366_1" pos="52.76" period="300.00" file="e1/G420151002000520010_1.xml"/>
    <inductionLoop id="G420151002000520010_2" lane="-9366_2" pos="52.76" period="300.00" file="e1/G420151002000520010_2.xml"/>
    <inductionLoop id="G420151002000610010_0" lane="-11270_0" pos="776.31" period="300.00" file="e1/G420151002000610010_0.xml"/>
    <inductionLoop id="G420151002000610010_1" lane="-11270_1" pos="776.31" period="300.00" file="e1/G420151002000610010_1.xml"/>
    <inductionLoop id="G420151002000610010_2" lane="-11270_2" pos="776.31" period="300.00" file="e1/G420151002000610010_2.xml"/>
    <inductionLoop id="G420151002000620010_0" lane="-5084_0" pos="160.29" period="300.00" file="e1/G420151002000620010_0.xml"/>
    <inductionLoop id="G420151002000620010_1" lane="-5084_1" pos="160.29" period="300.00" file="e1/G420151002000620010_1.xml"/>
    <inductionLoop id="G420151002000620010_2" lane="-5084_2" pos="160.29" period="300.00" file="e1/G420151002000620010_2.xml"/>
    <inductionLoop id="G420151002000710010_0" lane="-9594_0" pos="185.95" period="300.00" file="e1/G420151002000710010_0.xml"/>
    <inductionLoop id="G420151002000710010_1" lane="-9594_1" pos="185.95" period="300.00" file="e1/G420151002000710010_1.xml"/>
    <inductionLoop id="G420151002000710010_2" lane="-9594_2" pos="185.95" period="300.00" file="e1/G420151002000710010_2.xml"/>
    <inductionLoop id="G420151002000720010_0" lane="-10042_0" pos="16.16" period="300.00" file="e1/G420151002000720010_0.xml"/>
    <inductionLoop id="G420151002000720010_1" lane="-10042_1" pos="16.16" period="300.00" file="e1/G420151002000720010_1.xml"/>
    <inductionLoop id="G420151002000720010_2" lane="-10042_2" pos="16.16" period="300.00" file="e1/G420151002000720010_2.xml"/>
    <inductionLoop id="G420151002000810010_0" lane="-6986.180_0" pos="1198.25" period="300.00" file="e1/G420151002000810010_0.xml"/>
    <inductionLoop id="G420151002000810010_1" lane="-6986.180_1" pos="1198.25" period="300.00" file="e1/G420151002000810010_1.xml"/>
    <inductionLoop id="G420151002000810010_2" lane="-6986.180_2" pos="1198.25" period="300.00" file="e1/G420151002000810010_2.xml"/>
    <inductionLoop id="G420151002000820010_0" lane="-4918_0" pos="16.16" period="300.00" file="e1/G420151002000820010_0.xml"/>
    <inductionLoop id="G420151002000820010_1" lane="-4918_1" pos="16.16" period="300.00" file="e1/G420151002000820010_1.xml"/>
    <inductionLoop id="G420151002000820010_2" lane="-4918_2" pos="16.16" period="300.00" file="e1/G420151002000820010_2.xml"/>
    <inductionLoop id="G420151002000910010_0" lane="-11006_0" pos="621.37" period="300.00" file="e1/G420151002000910010_0.xml"/>
    <inductionLoop id="G420151002000910010_1" lane="-11006_1" pos="621.37" period="300.00" file="e1/G420151002000910010_1.xml"/>
    <inductionLoop id="G420151002000910010_2" lane="-11006_2" pos="621.37" period="300.00" file="e1/G420151002000910010_2.xml"/>
    <inductionLoop id="G420151002000920010_0" lane="-9434_0" pos="19.65" period="300.00" file="e1/G420151002000920010_0.xml"/>
    <inductionLoop id="G420151002000920010_1" lane="-9434_1" pos="19.65" period="300.00" file="e1/G420151002000920010_1.xml"/>
    <inductionLoop id="G420151002000920010_2" lane="-9434_2" pos="19.65" period="300.00" file="e1/G420151002000920010_2.xml"/>
    <inductionLoop id="G420151002001010010_0" lane="-4516.107_0" pos="1536.49" period="300.00" file="e1/G420151002001010010_0.xml"/>
    <inductionLoop id="G420151002001010010_1" lane="-4516.107_1" pos="1536.49" period="300.00" file="e1/G420151002001010010_1.xml"/>
    <inductionLoop id="G420151002001010010_2" lane="-4516.107_2" pos="1536.49" period="300.00" file="e1/G420151002001010010_2.xml"/>
    <inductionLoop id="G420151002001020010_0" lane="-7206_0" pos="137.03" period="300.00" file="e1/G420151002001020010_0.xml"/>
    <inductionLoop id="G420151002001020010_1" lane="-7206_1" pos="137.03" period="300.00" file="e1/G420151002001020010_1.xml"/>
    <inductionLoop id="G420151002001020010_2" lane="-7206_2" pos="137.03" period="300.00" file="e1/G420151002001020010_2.xml"/>
    <!-- TAZs -->
    <taz id="G000551002000110010" shape="345559.68,571255.93 345562.98,571242.73 345628.49,571259.23 345623.92,571275.23 345559.43,571256.44 345559.68,571255.93" name="chuanbei(guangyuan-zhaohua)" color="blue">
        <tazSource id="-1312#3" weight="1.00"/>
        <tazSink id="-1312#3" weight="1.00"/>
    </taz>
    <taz id="G000551002000120010" shape="345432.19,571209.42 345434.50,571198.71 345482.13,571211.51 345478.98,571222.22 345431.98,571209.42 345432.19,571209.42" name="chuanbei(zhaohua-guangyuan)" color="blue">
        <tazSource id="-1312#3" weight="1.00"/>
        <tazSink id="-1312#3" weight="1.00"/>
        <tazSource id="-17234#0" weight="1.00"/>
        <tazSink id="-17234#0" weight="1.00"/>
    </taz>
    <taz id="G000551002000210010" shape="341423.45,570906.99 341430.38,570877.80 341574.37,570913.42 341564.96,570947.07 341422.96,570908.48 341423.45,570906.99" name="chuanbei(zhaohua-luojiagou)" color="blue">
        <tazSource id="-3092" weight="1.00"/>
        <tazSink id="-3092" weight="1.00"/>
        <tazSource id="E28" weight="1.00"/>
        <tazSink id="E28" weight="1.00"/>
    </taz>
    <taz id="G000551002000220010" shape="341190.76,570827.42 341192.89,570817.49 341220.84,570824.25 341217.97,570834.26 341190.54,570827.27 341190.76,570827.42" name="chuanbei(luojiagou-zhaohua)" color="blue">
        <tazSource id="-16838" weight="1.00"/>
        <tazSink id="-16838" weight="1.00"/>
    </taz>
    <taz id="G000551002000310010" shape="328766.96,563539.74 328774.21,563529.02 328812.99,563556.13 328806.37,563565.59 328766.96,563539.58 328766.96,563539.74" name="chuanbei(luojiagou-jianmenguan)" color="blue">
        <tazSource id="-16756" weight="1.00"/>
        <tazSink id="-16756" weight="1.00"/>
    </taz>
    <taz id="G000551002000320010" shape="328661.96,563452.87 328667.64,563444.83 328712.25,563476.68 328706.58,563484.09 328661.80,563452.87 328661.96,563452.87" name="chuanbei(jianmenguan-luojiagou)" color="blue">
        <tazSource id="-11078" weight="1.00"/>
        <tazSink id="-11078" weight="1.00"/>
    </taz>
    <taz id="G00055100200104010" shape="349406.49,577669.58 349411.82,577628.12 349424.62,577629.31 349420.71,577670.65 349406.61,577669.58 349406.49,577669.58" center="349415.86,577649.77" name="chuanbeiguangyuan toll(entrance)" color="blue">
        <tazSource id="-12268" weight="0.00"/>
        <tazSink id="-12268" weight="1.00"/>
        <tazSource id="-1344" weight="0.00"/>
        <tazSink id="-1344" weight="1.00"/>
        <tazSource id="-14910" weight="1.00"/>
        <tazSink id="-14910" weight="0.00"/>
    </taz>
    <taz id="G00055100200104020" shape="349394.09,577622.24 349397.33,577596.04 349411.19,577597.95 349408.00,577625.76 349393.80,577622.53 349394.09,577622.24" center="349402.69,577610.64" name="chuanbeiguangyuan toll(exit)" color="blue">
        <tazSource id="-12268" weight="0.00"/>
        <tazSink id="-12268" weight="1.00"/>
        <tazSource id="-1344" weight="0.00"/>
        <tazSink id="-1344" weight="1.00"/>
        <tazSource id="-14910" weight="1.00"/>
        <tazSink id="-14910" weight="0.00"/>
    </taz>
    <taz id="G00055100200204010" shape="342584.39,571324.00 342576.46,571288.81 342587.22,571286.22 342596.04,571322.14 342584.31,571324.08 342584.39,571324.00" center="342586.10,571305.49" name="chuanbeizhaohua toll(entrance)" color="blue">
        <tazSource id="-10576" weight="0.00"/>
        <tazSink id="-10576" weight="1.00"/>
        <tazSource id="-8524" weight="1.00"/>
        <tazSink id="-8524" weight="0.00"/>
    </taz>
    <taz id="G00055100200204020" shape="342584.94,571275.76 342580.27,571256.57 342591.17,571253.36 342596.00,571273.25 342584.84,571275.71 342584.94,571275.76" name="chuanbeizhaohua toll(exit)" color="blue">
        <tazSource id="-10576" weight="0.00"/>
        <tazSink id="-10576" weight="1.00"/>
        <tazSource id="-8524" weight="1.00"/>
        <tazSink id="-8524" weight="1.00"/>
    </taz>
    <taz id="G00055100200301010" shape="327145.47,561888.68 327152.10,561867.08 327159.63,561869.43 327152.99,561891.03 327145.55,561888.60 327145.47,561888.68" name="chuanbeijianmenguan toll(entrance)" color="blue">
        <tazSource id="-15166" weight="1.00"/>
        <tazSink id="-15166" weight="0.00"/>
        <tazSource id="-15168" weight="1.00"/>
        <tazSink id="-15168" weight="0.00"/>
    </taz>
    <taz id="G00055100200302010" shape="327136.59,561886.66 327143.34,561863.93 327152.37,561866.81 327145.75,561889.34 327136.72,561886.40 327136.59,561886.66" name="chuanbeijianmenguan toll(exit)" color="blue">
        <tazSource id="-5268" weight="0.00"/>
        <tazSink id="-5268" weight="1.00"/>
        <tazSource id="-6522" weight="0.00"/>
        <tazSink id="-6522" weight="1.00"/>
    </taz>
    <taz id="G000551003000110010" shape="310656.65,552291.15 310665.29,552279.72 310709.47,552310.95 310701.85,552321.62 310656.91,552290.90 310656.65,552291.15" name="mianguang(shaxiba-jinzishan)" color="blue">
        <tazSource id="-4768" weight="1.00"/>
        <tazSink id="-4768" weight="1.00"/>
    </taz>
    <taz id="G000551003000120010" shape="310523.86,552179.18 310533.00,552168.01 310577.94,552200.51 310569.56,552210.92 310524.88,552178.42 310523.86,552179.18" name="mianguang(jinzishan-shaxiba)" color="blue">
        <tazSource id="-1674" weight="1.00"/>
        <tazSink id="-1674" weight="1.00"/>
    </taz>
    <taz id="G000551003000210010" shape="308667.29,550956.88 308675.05,550942.61 308721.01,550966.53 308714.71,550977.03 308668.13,550954.15 308667.29,550956.88" name="mianguang(jinzishan-erlangmiao)" color="blue">
        <tazSource id="-16844" weight="1.00"/>
        <tazSink id="-16844" weight="1.00"/>
    </taz>
    <taz id="G000551003000220010" shape="308596.36,550903.16 308600.98,550894.14 308629.94,550909.04 308625.32,550918.06 308596.57,550903.37 308596.36,550903.16" name="mianguang(erlangmiao-jinzishan)" color="blue">
        <tazSource id="-12922" weight="1.00"/>
        <tazSink id="-12922" weight="1.00"/>
    </taz>
    <taz id="G000551003000310010" shape="287263.24,530338.59 287270.26,530330.96 287285.09,530346.48 287277.77,530353.27 287263.17,530338.55 287263.24,530338.59" name="mianguang(erlangmiao-houba)" color="blue">
        <tazSource id="-5722#11" weight="1.00"/>
        <tazSink id="-5722#11" weight="1.00"/>
    </taz>
    <taz id="G000551003000320010" shape="287205.74,530262.53 287211.62,530256.51 287227.87,530273.43 287221.92,530279.31 287205.67,530262.26 287205.74,530262.53" name="mianguang(houba-erlangmiao)" color="blue">
        <tazSource id="-1062" weight="1.00"/>
        <tazSink id="-1062" weight="1.00"/>
    </taz>
    <taz id="G000551003000410010" shape="281232.67,521798.88 281214.64,521745.99 281233.54,521740.61 281253.65,521792.47 281232.32,521799.06 281232.67,521798.88" name="mianguang(houba-xiaoxiba)" color="blue">
        <tazSource id="-12700" weight="1.00"/>
        <tazSink id="-12700" weight="1.00"/>
        <tazSource id="-3384#10" weight="1.00"/>
        <tazSink id="-3384#10" weight="1.00"/>
        <tazSource id="-4232#22" weight="1.00"/>
        <tazSink id="-4232#22" weight="1.00"/>
    </taz>
    <taz id="G000551003000420010" shape="281208.22,521682.52 281194.69,521644.19 281206.83,521640.20 281220.01,521678.53 281208.05,521682.52 281208.22,521682.52" name="mianguang(xiaoxiba-houba)" color="blue">
        <tazSource id="-12700" weight="1.00"/>
        <tazSink id="-12700" weight="1.00"/>
    </taz>
    <taz id="G000551003000510010" shape="278438.76,518590.26 278439.15,518574.43 278486.65,518574.43 278486.07,518591.40 278438.76,518590.07 278438.76,518590.26" name="mianguang(xiaoxiba-jiangyoubei)" color="blue">
        <tazSource id="-7902" weight="1.00"/>
        <tazSink id="-7902" weight="1.00"/>
        <tazSource id="-7918" weight="1.00"/>
        <tazSink id="-7918" weight="1.00"/>
    </taz>
    <taz id="G000551003000520010" shape="278251.44,518581.29 278251.05,518568.51 278289.78,518568.70 278290.16,518581.48 278251.05,518581.29 278251.44,518581.29" name="mianguang(jiangyoubei-xiaoxiba)" color="blue">
        <tazSource id="-7598" weight="1.00"/>
        <tazSink id="-7598" weight="1.00"/>
    </taz>
    <taz id="G000551003000610010" shape="265847.47,506139.63 265855.29,506133.35 265872.11,506153.61 265864.17,506160.24 265847.59,506139.75 265847.47,506139.63" name="mianguang(jiangyoubei-guanshan)" color="blue">
        <tazSource id="-9302" weight="1.00"/>
        <tazSink id="-9302" weight="1.00"/>
    </taz>
    <taz id="G000551003000620010" shape="265828.15,506100.91 265814.41,506083.97 265821.04,506078.41 265835.37,506095.11 265828.26,506101.15 265828.15,506100.91" name="mianguang(guanshan-jiangyoubei)" color="blue">
        <tazSource id="-16112" weight="1.00"/>
        <tazSink id="-16112" weight="1.00"/>
    </taz>
    <taz id="G000551003000710010" shape="261723.83,500899.16 261705.25,500858.60 261718.09,500853.87 261737.01,500893.41 261723.50,500899.49 261723.83,500899.16" name="mianguang(guanshan-jiangyou)" color="blue">
        <tazSource id="-13272" weight="1.00"/>
        <tazSink id="-13272" weight="1.00"/>
        <tazSource id="-1690" weight="1.00"/>
        <tazSink id="-1690" weight="1.00"/>
    </taz>
    <taz id="G000551003000720010" shape="261692.07,500801.15 261676.18,500765.67 261684.63,500760.94 261700.85,500796.42 261691.73,500801.15 261692.07,500801.15" name="mianguang(jiangyou-guanshan)" color="blue">
        <tazSource id="-1690" weight="1.00"/>
        <tazSink id="-1690" weight="1.00"/>
    </taz>
    <taz id="G000551003000810010" shape="259844.74,496668.87 259806.45,496626.86 259815.37,496618.69 259853.29,496658.09 259843.63,496668.50 259844.74,496668.87" name="mianguang(jiangyou-zhangjiaping)" color="blue">
        <tazSource id="-3494" weight="1.00"/>
        <tazSink id="-3494" weight="1.00"/>
    </taz>
    <taz id="G000551003000820010" shape="259732.85,496535.04 259693.81,496491.18 259701.25,496484.49 259740.28,496526.87 259733.59,496535.04 259732.85,496535.04" name="mianguang(zhangjiaping-jiangyou)" color="blue">
        <tazSource id="-14642" weight="1.00"/>
        <tazSink id="-14642" weight="1.00"/>
    </taz>
    <taz id="G000551003000910010" shape="253951.89,485007.69 253933.91,484980.07 253943.94,484973.69 253964.66,485002.48 253951.89,485007.82 253951.89,485007.69" name="mianguang(zhangjiaping-kexuecheng)" color="blue">
        <tazSource id="-13846" weight="1.00"/>
        <tazSink id="-13846" weight="1.00"/>
    </taz>
    <taz id="G000551003000920010" shape="253929.61,484948.93 253911.89,484923.13 253920.88,484916.75 253938.99,484942.81 253929.48,484949.06 253929.61,484948.93" name="mianguang(kexuecheng-zhangjiaping)" color="blue">
        <tazSource id="-12610" weight="1.00"/>