<?xml version='1.0' encoding='utf-8'?>
<routes><vType id="bus_large" accel="1.0" decel="4.5" sigma="0.5" length="5" maxSpeed="27.78" /><vType id="bus_small" accel="1.0" decel="4.5" sigma="0.5" length="5" maxSpeed="27.78" /><vType id="passenger_large" accel="1.0" decel="4.5" sigma="0.5" length="5" maxSpeed="27.78" /><vType id="passenger_small" accel="1.0" decel="4.5" sigma="0.5" length="5" maxSpeed="27.78" /><vType id="truck_large" accel="1.0" decel="4.5" sigma="0.5" length="5" maxSpeed="27.78" /><vType id="truck_small" accel="1.0" decel="4.5" sigma="0.5" length="5" maxSpeed="27.78" /><flow id="f0" begin="3300" end="3600" fromTaz="S420251002000210010" toTaz="S42025100201102010" type="passenger_small" vehsPerHour="12.0" /><flow id="f1" begin="3300" end="3600" fromTaz="G420151001000420010" toTaz="G420151002000520010" type="passenger_small" vehsPerHour="12.0" /><flow id="f2" begin="1800" end="2100" fromTaz="G42015100200701010" toTaz="G42015100200102010" type="truck_small" vehsPerHour="12.0" /><flow id="f3" begin="3000" end="3300" fromTaz="G000551003001310010" toTaz="G00055104400902010" type="truck_large" vehsPerHour="12.0" /><flow id="f4" begin="1200" end="1500" fromTaz="G420151001000420010" toTaz="G420151002000720010" type="passenger_large" vehsPerHour="12.0" /><flow id="f5" begin="1800" end="2100" fromTaz="G00055100700301010" toTaz="G00055100700501010" type="passenger_small" vehsPerHour="60.0" /><flow id="f6" begin="3000" end="3300" fromTaz="G420151002000820010" toTaz="G420151002000520010" type="passenger_small" vehsPerHour="60.0" /><flow id="f7" begin="2700" end="3000" fromTaz="G000551008000310010" toTaz="G000551008000410010" type="passenger_small" vehsPerHour="12.0" /><flow id="f8" begin="2100" end="2400" fromTaz="G420151001001010010" toTaz="G42015100200602010" type="passenger_small" vehsPerHour="36.0" /><flow id="f9" begin="2700" end="3000" fromTaz="G42015100200201010" toTaz="G42015100100302020" type="passenger_small" vehsPerHour="24.0" /><flow id="f10" begin="600" end="900" fromTaz="G00055100500301010" toTaz="G00055100501302010" type="passenger_small" vehsPerHour="12.0" /><flow id="f11" begin="600" end="900" fromTaz="G42015100100901010" toTaz="G420151002000920010" type="passenger_small" vehsPerHour="24.0" /><flow id="f12" begin="0" end="300" fromTaz="G007651003000710010" toTaz="G007651003000110010" type="truck_small" vehsPerHour="12.0" /><flow id="f13" begin="2400" end="2700" fromTaz="G42015100200701020" toTaz="G42015100200402020" type="passenger_small" vehsPerHour="84.0" /><flow id="f14" begin="3000" end="3300" fromTaz="G00055100601001010" toTaz="G00055100700502010" type="passenger_small" vehsPerHour="24.0" /><flow id="f15" begin="2700" end="3000" fromTaz="G00055100500901010" toTaz="G00055100500802010" type="passenger_small" vehsPerHour="12.0" /><flow id="f16" begin="600" end="900" fromTaz="G00055104400501010" toTaz="G00055104400702010" type="passenger_small" vehsPerHour="120.0" /><flow id="f17" begin="1800" end="2100" fromTaz="G00055100501501010" toTaz="G00055100501402010" type="passenger_small" vehsPerHour="12.0" /><flow id="f18" begin="900" end="1200" fromTaz="G42015100200201010" toTaz="G420151001000910010" type="passenger_small" vehsPerHour="60.0" /><flow id="f19" begin="300" end="600" fromTaz="G42015100100801020" toTaz="G420151001000520010" type="passenger_small" vehsPerHour="36.0" /><flow id="f20" begin="0" end="300" fromTaz="G00765100300401010" toTaz="G00765100300202010" type="passenger_small" vehsPerHour="24.0" /><flow id="f21" begin="2100" end="2400" fromTaz="G000551002000310010" toTaz="G000551003001210010" type="truck_large" vehsPerHour="36.0" /><flow id="f22" begin="2400" end="2700" fromTaz="G42015100100901010" toTaz="G420151002000310010" type="passenger_small" vehsPerHour="12.0" /><flow id="f23" begin="900" end="1200" fromTaz="G00055104400201020" toTaz="G00055104400102010" type="passenger_small" vehsPerHour="48.0" /><flow id="f24" begin="1800" end="2100" fromTaz="G42015100200501020" toTaz="G420151001000420010" type="passenger_small" vehsPerHour="24.0" /><flow id="f25" begin="1500" end="1800" fromTaz="G420151001001010010" toTaz="G42015100200402020" type="passenger_small" vehsPerHour="96.0" /><flow id="f26" begin="1200" end="1500" fromTaz="G42015100200801010" toTaz="G42015100200602010" type="passenger_small" vehsPerHour="12.0" /><flow id="f27" begin="3000" end="3300" fromTaz="G42015100200501020" toTaz="G420151002000120010" type="passenger_small" vehsPerHour="12.0" /><flow id="f28" begin="1800" end="2100" fromTaz="G42015100200701020" toTaz="G42015100100102010" type="passenger_small" vehsPerHour="84.0" /><flow id="f29" begin="0" end="300" fromTaz="G000551003001310010" toTaz="G000551044001010010" type="passenger_small" vehsPerHour="36.0" /><flow id="f30" begin="1500" end="1800" fromTaz="G007651002001120010" toTaz="G007651002001120010" type="truck_small" vehsPerHour="12.0" /><flow id="f31" begin="2400" end="2700" fromTaz="G00055100700601010" toTaz="G000551006000220010" type="truck_large" vehsPerHour="12.0" /><flow id="f32" begin="3300" end="3600" fromTaz="G42015100200302020" toTaz="G420151001000510010" type="passenger_small" vehsPerHour="12.0" /><flow id="f33" begin="2100" end="2400" fromTaz="G42015100200101010" toTaz="G42015100100302010" type="passenger_small" vehsPerHour="12.0" /><flow id="f34" begin="900" end="1200" fromTaz="G42015100100501020" toTaz="G42015100200302010" type="passenger_small" vehsPerHour="60.0" /><flow id="f35" begin="900" end="1200" fromTaz="G007651003000810010" toTaz="G007651003000510010" type="passenger_small" vehsPerHour="12.0" /><flow id="f36" begin="1200" end="1500" fromTaz="G42015100200801010" toTaz="G42015100100502010" type="passenger_small" vehsPerHour="36.0" /><flow id="f37" begin="300" end="600" fromTaz="G420151001000610010" toTaz="G42015100100802010" type="passenger_small" vehsPerHour="36.0" /><flow id="f38" begin="2400" end="2700" fromTaz="G00055100600401010" toTaz="G000551006000510010" type="passenger_small" vehsPerHour="12.0" /><flow id="f39" begin="1500" end="1800" fromTaz="G007651003000710010" toTaz="G00765100300502010" type="truck_small" vehsPerHour="12.0" /><flow id="f40" begin="900" end="1200" fromTaz="G420151002000510010" toTaz="G42015100100102010" type="passenger_small" vehsPerHour="36.0" /><flow id="f41" begin="1800" end="2100" fromTaz="G000551002000110010" toTaz="G000551003001210010" type="truck_small" vehsPerHour="60.0" /><flow id="f42" begin="900" end="1200" fromTaz="G420151002000910010" toTaz="G420151001000510010" type="passenger_small" vehsPerHour="144.0" /><flow id="f43" begin="600" end="900" fromTaz="G00055104400701010" toTaz="G000551003001320010" type="truck_small" vehsPerHour="12.0" /><flow id="f44" begin="0" end="300" fromTaz="S42025100200501010" toTaz="S42025100200202010" type="passenger_small" vehsPerHour="12.0" /><flow id="f45" begin="1500" end="1800" fromTaz="G000551005000410010" toTaz="G00055100500402010" type="truck_small" vehsPerHour="36.0" /><flow id="f46" begin="900" end="1200" fromTaz="G000551005003710010" toTaz="G000551005000610010" type="passenger_small" vehsPerHour="300.0" /><flow id="f47" begin="1500" end="1800" fromTaz="G42015100100601010" toTaz="G420151001001120010" type="passenger_small" vehsPerHour="12.0" /><flow id="f48" begin="300" end="600" fromTaz="G000551003001310010" toTaz="G000551044002810010" type="passenger_small" vehsPerHour="36.0" /><flow id="f49" begin="1800" end="2100" fromTaz="G42015100100901010" toTaz="G42015100100502020" type="passenger_small" vehsPerHour="12.0" /><flow id="f50" begin="300" end="600" fromTaz="G42015100200301020" toTaz="G42015100200602010" type="passenger_small" vehsPerHour="24.0" /><flow id="f51" begin="0" end="300" fromTaz="G42015100200201010" toTaz="G420151001000110010" type="passenger_small" vehsPerHour="24.0" /><flow id="f52" begin="1800" end="2100" fromTaz="G00055104400701010" toTaz="G000551044001410010" type="truck_small" vehsPerHour="60.0" /><flow id="f53" begin="0" end="300" fromTaz="G42015100200201010" toTaz="G420151001000510010" type="passenger_small" vehsPerHour="24.0" /><flow id="f54" begin="300" end="600" fromTaz="S42025100200901010" toTaz="S420251002000220010" type="passenger_small" vehsPerHour="12.0" /><flow id="f55" begin="1500" end="1800" fromTaz="G00055100500301010" toTaz="G00055100500702020" type="passenger_small" vehsPerHour="36.0" /><flow id="f56" begin="2400" end="2700" fromTaz="G000551005000410010" toTaz="G00055100500702020" type="passenger_small" vehsPerHour="24.0" /><flow id="f57" begin="900" end="1200" fromTaz="G420151001000910010" toTaz="G42015100200802020" type="passenger_small" vehsPerHour="12.0" /><flow id="f58" begin="1500" end="1800" fromTaz="G42015100200701010" toTaz="G42015100200802020" type="passenger_small" vehsPerHour="36.0" /><flow id="f59" begin="0" end="300" fromTaz="G00055100300504010" toTaz="G000551002000320010" type="passenger_small" vehsPerHour="24.0" /><flow id="f60" begin="600" end="900" fromTaz="G42015100200302020" toTaz="G420151002000520010" type="passenger_small" vehsPerHour="144.0" /><flow id="f61" begin="900" end="1200" fromTaz="G00055100200104010" toTaz="G000551002000210010" type="passenger_small" vehsPerHour="36.0" /><flow id="f62" begin="1800" end="2100" fromTaz="G00055100200104010" toTaz="G000551002000210010" type="passenger_small" vehsPerHour="72.0" /><flow id="f63" begin="2100" end="2400" fromTaz="G00055100501301010" toTaz="G00055100500102010" type="passenger_small" vehsPerHour="36.0" /><flow id="f64" begin="2700" end="3000" fromTaz="G420151002000420010" toTaz="G42015100100302020" type="truck_small" vehsPerHour="12.0" /><flow id="f65" begin="900" end="1200" fromTaz="G42015100100401010" toTaz="G42015100100802020" type="passenger_small" vehsPerHour="48.0" /><flow id="f66" begin="3000" end="3300" fromTaz="S42025100200501010" toTaz="S420251002002110010" type="truck_small" vehsPerHour="12.0" /><flow id="f67" begin="1200" end="1500" fromTaz="S420251002002010010" toTaz="S420251002002110010" type="truck_small" vehsPerHour="36.0" /><flow id="f68" begin="1200" end="1500" fromTaz="G42015100200501020" toTaz="G42015100200802010" type="passenger_small" vehsPerHour="84.0" /><flow id="f69" begin="600" end="900" fromTaz="S420251002000210010" toTaz="S42025100200802010" type="passenger_small" vehsPerHour="12.0" /><flow id="f70" begin="2100" end="2400" fromTaz="G00055100800201010" toTaz="G000551008000410010" type="passenger_small" vehsPerHour="36.0" /><flow id="f71" begin="0" end="300" fromTaz="G000551044002820010" toTaz="G000551003001320010" type="passenger_small" vehsPerHour="24.0" /><flow id="f72" begin="300" end="600" fromTaz="G00055104400101010" toTaz="G000551003001320010" type="passenger_small" vehsPerHour="12.0" /><flow id="f73" begin="2400" end="2700" fromTaz="G42015100200201010" toTaz="G42015100200302020" type="passenger_small" vehsPerHour="12.0" /><flow id="f74" begin="0" end="300" fromTaz="G420151001000520010" toTaz="G42015100200702010" type="passenger_small" vehsPerHour="24.0" /><flow id="f75" begin="2100" end="2400" fromTaz="G00055100600301010" toTaz="G00055100600202010" type="passenger_small" vehsPerHour="24.0" /><flow id="f76" begin="1500" end="1800" fromTaz="G000551008002220010" toTaz="G00055100700502010" type="truck_large" vehsPerHour="12.0" /><flow id="f77" begin="1500" end="1800" fromTaz="G42015100200101010" toTaz="G420151002000920010" type="passenger_small" vehsPerHour="24.0" /><flow id="f78" begin="1800" end="2100" fromTaz="G42015100200401020" toTaz="G42015100200202020" type="truck_small" vehsPerHour="24.0" /><flow id="f79" begin="3000" end="3300" fromTaz="G420151001001310010" toTaz="G42015100200802010" type="passenger_small" vehsPerHour="24.0" /><flow id="f80" begin="1500" end="1800" fromTaz="G420151002000420010" toTaz="G42015100200402010" type="passenger_large" vehsPerHour="12.0" /><flow id="f81" begin="2700" end="3000" fromTaz="G42015100200701020" toTaz="G420151001002910010" type="passenger_small" vehsPerHour="12.0" /><flow id="f82" begin="2100" end="2400" fromTaz="G42015100100201010" toTaz="G42015100200102010" type="passenger_small" vehsPerHour="60.0" /><flow id="f83" begin="1500" end="1800" fromTaz="G00055100700601010" toTaz="G00055100700702010" type="passenger_large" vehsPerHour="24.0" /><flow id="f84" begin="3000" end="3300" fromTaz="G000551005003710010" toTaz="G00055100500202010" type="passenger_small" vehsPerHour="192.0" /><flow id="f85" begin="1200" end="1500" fromTaz="G420151001000520010" toTaz="G42015100100102010" type="truck_small" vehsPerHour="12.0" /><flow id="f86" begin="1500" end="1800" fromTaz="G42015100100101020" toTaz="G42015100200202010" type="passenger_small" vehsPerHour="156.0" /><flow id="f87" begin="1800" end="2100" fromTaz="G420151001000710010" toTaz="G42015100100302010" type="passenger_small" vehsPerHour="12.0" /><flow id="f88" begin="600" end="900" fromTaz="G00055100500301020" toTaz="G000551005000610010" type="passenger_small" vehsPerHour="12.0" /><flow id="f89" begin="3000" end="3300" fromTaz="S420251002001120010" toTaz="S42025100200702010" type="truck_small" vehsPerHour="12.0" /><flow id="f90" begin="2700" end="3000" fromTaz="G00055100501301010" toTaz="G000551006000110010" type="passenger_small" vehsPerHour="12.0" /><flow id="f91" begin="600" end="900" fromTaz="S420251002001520010" toTaz="S420251002000820010" type="truck_large" vehsPerHour="36.0" /><flow id="f92" begin="2100" end="2400" fromTaz="G00055104400601010" toTaz="G000551044001410010" type="passenger_small" vehsPerHour="180.0" /><flow id="f93" begin="1500" end="1800" fromTaz="S42025100200201010" toTaz="S42025100200902010" type="passenger_small" vehsPerHour="12.0" /><flow id="f94" begin="3000" end="3300" fromTaz="G42015100100901010" toTaz="G42015100200602010" type="passenger_small" vehsPerHour="12.0" /><flow id="f95" begin="0" end="300" fromTaz="G00055100501301010" toTaz="G000551005002010010" type="passenger_small" vehsPerHour="60.0" /><flow id="f96" begin="3000" end="3300" fromTaz="G42015100100401010" toTaz="G42015100200602010" type="passenger_small" vehsPerHour="72.0" /><flow id="f97" begin="1200" end="1500" fromTaz="G42015100200401020" toTaz="G42015100100302020" type="passenger_small" vehsPerHour="60.0" /><flow id="f98" begin="0" end="300" fromTaz="G00055100700101010" toTaz="G00055100700501010" type="passenger_large" vehsPerHour="12.0" /><flow id="f99" begin="3000" end="3300" fromTaz="G00055100500201010" toTaz="G00055100500302010" type="passenger_small" vehsPerHour="12.0" /><flow id="f100" begin="1200" end="1500" fromTaz="G000551003001310010" toTaz="G000551044002810010" type="passenger_small" vehsPerHour="24.0" /><flow id="f101" begin="1800" end="2100" fromTaz="G00055100300104010" toTaz="G000551003001210010" type="passenger_small" vehsPerHour="12.0" /><flow id="f102" begin="600" end="900" fromTaz="G420151001000920010" toTaz="G420151001000920010" type="passenger_small" vehsPerHour="12.0" /><flow id="f103" begin="300" end="600" fromTaz="G42015100200801020" toTaz="G42015100200402020" type="passenger_small" vehsPerHour="36.0" /><flow id="f104" begin="600" end="900" fromTaz="G000551005003710010" toTaz="G000551005000310010" type="truck_small" vehsPerHour="12.0" /><flow id="f105" begin="3300" end="3600" fromTaz="G00055100700501010" toTaz="G00055100700302010" type="passenger_small" vehsPerHour="144.0" /><flow id="f106" begin="1200" end="1500" fromTaz="G42015100100501010" toTaz="G42015100200502010" type="passenger_small" vehsPerHour="12.0" /><flow id="f107" begin="300" end="600" fromTaz="G420151001001220010" toTaz="G420151001000420010" type="passenger_small" vehsPerHour="72.0" /><flow id="f108" begin="2400" end="2700" fromTaz="G00055100600501010" toTaz="G00055100600402010" type="passenger_small" vehsPerHour="36.0" /><flow id="f109" begin="3300" end="3600" fromTaz="G42015100100501020" toTaz="G420151001002920010" type="truck_small" vehsPerHour="12.0" /><flow id="f110" begin="2400" end="2700" fromTaz="S42025100201202010" toTaz="S420251002002110010" type="passenger_small" vehsPerHour="12.0" /><flow id="f111" begin="1800" end="2100" fromTaz="G00055100600201010" toTaz="G00055100600302010" type="passenger_small" vehsPerHour="60.0" /><flow id="f112" begin="1800" end="2100" fromTaz="G420151002000820010" toTaz="G42015100200702020" type="passenger_small" vehsPerHour="144.0" /><flow id="f113" begin="2700" end="3000" fromTaz="G00765100300401010" toTaz="G007651003000720010" type="passenger_small" vehsPerHour="12.0" /><flow id="f114" begin="2700" end="3000" fromTaz="G42015100100301020" toTaz="G42015100200402010" type="passenger_small" vehsPerHour="12.0" /><flow id="f115" begin="300" end="600" fromTaz="S008151001000310010" toTaz="S008151001000310010" type="passenger_small" vehsPerHour="12.0" /><flow id="f116" begin="2700" end="3000" fromTaz="G42015100200401010" toTaz="G420151001001020010" type="passenger_small" vehsPerHour="12.0" /><flow id="f117" begin="0" end="300" fromTaz="G00765100300201010" toTaz="G00765100300102010" type="passenger_small" vehsPerHour="24.0" /><flow id="f118" begin="1200" end="1500" fromTaz="G420151001001010010" toTaz="G42015100200402010" type="truck_large" vehsPerHour="12.0" /><flow id="f119" begin="600" end="900" fromTaz="S420251002001120010" toTaz="S420251002000820010" type="truck_large" vehsPerHour="12.0" /><flow id="f120" begin="1200" end="1500" fromTaz="G42015100200201020" toTaz="G42015100200602010" type="truck_small" vehsPerHour="12.0" /><flow id="f121" begin="1200" end="1500" fromTaz="G00055100300904010" toTaz="G000551003000920010" type="passenger_small" vehsPerHour="24.0" /><flow id="f122" begin="3000" end="3300" fromTaz="G000551044001420010" toTaz="G00055104400602010" type="truck_small" vehsPerHour="12.0" /><flow id="f123" begin="900" end="1200" fromTaz="G007651003000120010" toTaz="G007651003000420010" type="passenger_small" vehsPerHour="12.0" /><flow id="f124" begin="3000" end="3300" fromTaz="G420151001000420010" toTaz="G42015100200702020" type="passenger_small" vehsPerHour="12.0" /><flow id="f125" begin="900" end="1200" fromTaz="S42025100201502010" toTaz="S42025100200602010" type="truck_small" vehsPerHour="12.0" /><flow id="f126" begin="1800" end="2100" fromTaz="G42015100100701020" toTaz="G42015100100502010" type="passenger_small" vehsPerHour="72.0" /><flow id="f127" begin="3300" end="3600" fromTaz="G42015100200301020" toTaz="G42015100200702020" type="passenger_small" vehsPerHour="72.0" /><flow id="f128" begin="900" end="1200" fromTaz="G42015100100301020" toTaz="G42015100200302020" type="passenger_small" vehsPerHour="12.0" /><flow id="f129" begin="2400" end="2700" fromTaz="G42015100100601010" toTaz="G42015100200802010" type="passenger_small" vehsPerHour="12.0" /><flow id="f130" begin="3300" end="3600" fromTaz="G000551005000410010" toTaz="G000551006000110010" type="passenger_small" vehsPerHour="60.0" /><flow id="f131" begin="0" end="300" fromTaz="G42015100200701010" toTaz="G420151002000720010" type="passenger_large" vehsPerHour="12.0" /><flow id="f132" begin="0" end="300" fromTaz="G00055100200204010" toTaz="G000551002000120010" type="truck_large" vehsPerHour="12.0" /><flow id="f133" begin="0" end="300" fromTaz="G00055100700501010" toTaz="G000551008000410010" type="passenger_small" vehsPerHour="48.0" /><flow id="f134" begin="3000" end="3300" fromTaz="G420151001000410010" toTaz="G42015100100402010" type="passenger_small" vehsPerHour="48.0" /><flow id="f135" begin="3000" end="3300" fromTaz="G420151002000820010" toTaz="G42015100200402020" type="truck_small" vehsPerHour="24.0" /><flow id="f136" begin="2700" end="3000" fromTaz="G42015100200801020" toTaz="G42015100200502010" type="passenger_small" vehsPerHour="36.0" /><flow id="f137" begin="2100" end="2400" fromTaz="S42025100201502010" toTaz="S42025100200702010" type="passenger_small" vehsPerHour="12.0" /><flow id="f138" begin="2700" end="3000" fromTaz="G00765100300501010" toTaz="G007651003000110010" type="passenger_small" vehsPerHour="12.0" /><flow id="f139" begin="900" end="1200" fromTaz="G42015100100801010" toTaz="G420151002000920010" type="passenger_small" vehsPerHour="12.0" /><flow id="f140" begin="1800" end="2100" fromTaz="G00055104401001020" toTaz="G000551044001410010" type="truck_small" vehsPerHour="84.0" /><flow id="f141" begin="2400" end="2700" fromTaz="G42015100100901010" toTaz="G42015100100302010" type="passenger_small" vehsPerHour="36.0" /><flow id="f142" begin="2400" end="2700" fromTaz="G000551006000110010" toTaz="G000551006000110010" type="truck_small" vehsPerHour="12.0" /><flow id="f143" begin="3000" end="3300" fromTaz="G420151001001210010" toTaz="G42015100200502020" type="passenger_small" vehsPerHour="12.0" /><flow id="f144" begin="1200" end="1500" fromTaz="G000551005003710010" toTaz="G00055100500202020" type="passenger_small" vehsPerHour="240.0" /><flow id="f145" begin="2400" end="2700" fromTaz="G000551005000410010" toTaz="G00055100500402010" type="truck_large" vehsPerHour="24.0" /><flow id="f146" begin="3000" end="3300" fromTaz="G00055100800201010" toTaz="G00055100800102010" type="passenger_small" vehsPerHour="12.0" /><flow id="f147" begin="1500" end="1800" fromTaz="G42015100100301020" toTaz="G42015100200502020" type="passenger_small" vehsPerHour="60.0" /><flow id="f148" begin="1500" end="1800" fromTaz="G420151001002910010" toTaz="G42015100200502020" type="passenger_small" vehsPerHour="36.0" /><flow id="f149" begin="2100" end="2400" fromTaz="G420151001000510010" toTaz="G420151001000510010" type="truck_large" vehsPerHour="12.0" /><flow id="f150" begin="3300" end="3600" fromTaz="G00055100500301010" toTaz="G00055100500102010" type="passenger_small" vehsPerHour="588.0" /><flow id="f151" begin="1200" end="1500" fromTaz="G00055100500801010" toTaz="G00055100500702010" type="passenger_small" vehsPerHour="12.0" /><flow id="f152" begin="300" end="600" fromTaz="G42015100200501020" toTaz="G420151002000810010" type="truck_small" vehsPerHour="12.0" /><flow id="f153" begin="1200" end="1500" fromTaz="S42025100200601010" toTaz="S420251002001510010" type="passenger_small" vehsPerHour="48.0" /><flow id="f154" begin="0" end="300" fromTaz="G00055100500401010" toTaz="G000551005000420010" type="truck_small" vehsPerHour="24.0" /><flow id="f155" begin="2100" end="2400" fromTaz="G420151001000920010" toTaz="G42015100200702020" type="passenger_small" vehsPerHour="24.0" /><flow id="f156" begin="2100" end="2400" fromTaz="S42025100201302010" toTaz="S42025100201502010" type="passenger_small" vehsPerHour="12.0" /><flow id="f157" begin="1200" end="1500" fromTaz="G000551005000520010" toTaz="G00055100500202010" type="passenger_small" vehsPerHour="12.0" /><flow id="f158" begin="600" end="900" fromTaz="G000551005000410010" toTaz="G000551005000610010" type="truck_large" vehsPerHour="36.0" /><flow id="f159" begin="300" end="600" fromTaz="G00055100700601010" toTaz="G00055100800202010" type="passenger_small" vehsPerHour="24.0" /><flow id="f160" begin="2100" end="2400" fromTaz="S420251002000810010" toTaz="S420251002002110010" type="truck_small" vehsPerHour="12.0" /><flow id="f161" begin="3300" end="3600" fromTaz="G420151002000820010" toTaz="G42015100200302010" type="passenger_small" vehsPerHour="108.0" /><flow id="f162" begin="2700" end="3000" fromTaz="G00055104400901010" toTaz="G000551044001120010" type="passenger_small" vehsPerHour="264.0" /><flow id="f163" begin="2700" end="3000" fromTaz="G00055100300504010" toTaz="G00055100300404020" type="passenger_small" vehsPerHour="12.0" /><flow id="f164" begin="1800" end="2100" fromTaz="G42015100200502010" toTaz="G42015100200402020" type="passenger_small" vehsPerHour="36.0" /><flow id="f165" begin="1500" end="1800" fromTaz="G42015100100801020" toTaz="G42015100100502020" type="passenger_small" vehsPerHour="12.0" /><flow id="f166" begin="300" end="600" fromTaz="G42015100100201010" toTaz="G42015100200402020" type="passenger_small" vehsPerHour="24.0" /><flow id="f167" begin="600" end="900" fromTaz="G42015100200701010" toTaz="G420151002000720010" type="passenger_small" vehsPerHour="84.0" /><flow id="f168" begin="2400" end="2700" fromTaz="G42015100100201010" toTaz="G42015100100802020" type="passenger_small" vehsPerHour="48.0" /><flow id="f169" begin="3000" end="3300" fromTaz="G00055104400601010" toTaz="G00055104400202010" type="passenger_small" vehsPerHour="36.0" /><flow id="f170" begin="2100" end="2400" fromTaz="G00055104400601010" toTaz="G000551044001410010" type="truck_large" vehsPerHour="12.0" /><flow id="f171" begin="300" end="600" fromTaz="S420251002000210010" toTaz="S42025100201002020" type="truck_small" vehsPerHour="12.0" /><flow id="f172" begin="300" end="600" fromTaz="S42025100201001010" toTaz="S420251002001320010" type="passenger_small" vehsPerHour="48.0" /><flow id="f173" begin="300" end="600" fromTaz="G42015100200201010" toTaz="G42015100200702020" type="passenger_small" vehsPerHour="108.0" /><flow id="f174" begin="1500" end="1800" fromTaz="G420151001001310010" toTaz="G42015100200702020" type="truck_large" vehsPerHour="12.0" /><flow id="f175" begin="3300" end="3600" fromTaz="G420151002000710010" toTaz="G42015100100102020" type="passenger_small" vehsPerHour="12.0" /><flow id="f176" begin="1500" end="1800" fromTaz="G42015100200101010" toTaz="G420151001000210010" type="truck_small" vehsPerHour="12.0" /><flow id="f177" begin="2100" end="2400" fromTaz="G000551005000620010" toTaz="G000551005000420010" type="passenger_small" vehsPerHour="276.0" /><flow id="f178" begin="0" end="300" fromTaz="G420151002000910010" toTaz="G42015100200202020" type="passenger_small" vehsPerHour="24.0" /><flow id="f179" begin="0" end="300" fromTaz="G000551005000620010" toTaz="G000551005003720010" type="passenger_small" vehsPerHour="360.0" /><flow id="f180" begin="300" end="600" fromTaz="G420151002000620010" toTaz="G42015100100302020" type="passenger_small" vehsPerHour="12.0" /><flow id="f181" begin="2100" end="2400" fromTaz="G00055100500301010" toTaz="G00055100500402010" type="passenger_small" vehsPerHour="36.0" /><flow id="f182" begin="3000" end="3300" fromTaz="G42015100100601010" toTaz="G42015100200502020" type="passenger_small" vehsPerHour="120.0" /><flow id="f183" begin="1800" end="2100" fromTaz="G000551003000910010" toTaz="G00055100301004020" type="passenger_small" vehsPerHour="12.0" /><flow id="f184" begin="3300" end="3600" fromTaz="G00055100500802010" toTaz="G000551005003720010" type="passenger_small" vehsPerHour="24.0" /><flow id="f185" begin="600" end="900" fromTaz="G00055100500501010" toTaz="G00055100500402010" type="passenger_small" vehsPerHour="36.0" /><flow id="f186" begin="600" end="900" fromTaz="G42015100200401020" toTaz="G42015100200302020" type="passenger_small" vehsPerHour="48.0" /><flow id="f187" begin="1500" end="1800" fromTaz="S42025100201302010" toTaz="S420251002000220010" type="truck_small" vehsPerHour="12.0" /><flow id="f188" begin="2700" end="3000" fromTaz="G000551044001420010" toTaz="G00055104400802010" type="passenger_small" vehsPerHour="216.0" /><flow id="f189" begin="2700" end="3000" fromTaz="G42015100100101020" toTaz="G420151001002910010" type="passenger_small" vehsPerHour="36.0" /><flow id="f190" begin="3000" end="3300" fromTaz="G420151001000420010" toTaz="G42015100100102010" type="passenger_small" vehsPerHour="36.0" /><flow id="f191" begin="600" end="900" fromTaz="G420151001000410010" toTaz="G42015100100802020" type="passenger_small" vehsPerHour="144.0" /><flow id="f192" begin="600" end="900" fromTaz="G42015100100501020" toTaz="G42015100100602010" type="passenger_small" vehsPerHour="180.0" /><flow id="f193" begin="300" end="600" fromTaz="G42015100200302020" toTaz="G420151001001320010" type="passenger_small" vehsPerHour="12.0" /><flow id="f194" begin="0" end="300" fromTaz="S42025100201302010" toTaz="S420251002002110010" type="passenger_small" vehsPerHour="12.0" /><flow id="f195" begin="3300" end="3600" fromTaz="G420151001000920010" toTaz="G420151001000520010" type="passenger_small" vehsPerHour="12.0" /><flow id="f196" begin="3300" end="3600" fromTaz="G42015100100501020" toTaz="G42015100200402020" type="passenger_small" vehsPerHour="24.0" /><flow id="f197" begin="600" end="900" fromTaz="G000551005000710010" toTaz="G00055100500602010" type="truck_small" vehsPerHour="12.0" /><flow id="f198" begin="2700" end="3000" fromTaz="G00055100700701010" toTaz="G00055100800202010" type="passenger_small" vehsPerHour="48.0" /><flow id="f199" begin="1500" end="1800" fromTaz="S42025100200201020" toTaz="S42025100200902010" type="passenger_small" vehsPerHour="12.0" /><flow id="f200" begin="2400" end="2700" fromTaz="G00055100700201010" toTaz="G00055100700102010" type="truck_small" vehsPerHour="12.0" /><flow id="f201" begin="600" end="900" fromTaz="G00055100300704010" toTaz="G00055100300304020" type="passenger_small" vehsPerHour="36.0" /><flow id="f202" begin="900" end="1200" fromTaz="G42015100100801020" toTaz="G42015100100502020" type="passenger_small" vehsPerHour="24.0" /><flow id="f203" begin="1200" end="1500" fromTaz="G420151002000910010" toTaz="G42015100200202010" type="truck_large" vehsPerHour="12.0" /><flow id="f204" begin="300" end="600" fromTaz="G00765100300501010" toTaz="G00765100300302010" type="truck_large" vehsPerHour="12.0" /><flow id="f205" begin="3000" end="3300" fromTaz="G42015100200701020" toTaz="G420151001000210010" type="passenger_small" vehsPerHour="84.0" /><flow id="f206" begin="3000" end="3300" fromTaz="S420251002001520010" toTaz="S420251002000220010" type="truck_large" vehsPerHour="12.0" /><flow id="f207" begin="2700" end="3000" fromTaz="G420151002000710010" toTaz="G420151001000210010" type="passenger_small" vehsPerHour="24.0" /><flow id="f208" begin="300" end="600" fromTaz="G42015100100301020" toTaz="G42015100100202010" type="passenger_small" vehsPerHour="36.0" /><flow id="f209" begin="1800" end="2100" fromTaz="G000551044001420010" toTaz="G000551044001120010" type="passenger_small" vehsPerHour="36.0" /><flow id="f210" begin="1800" end="2100" fromTaz="G00055100600401010" toTaz="G00055100601301010" type="passenger_small" vehsPerHour="12.0" /><flow id="f211" begin="900" end="1200" fromTaz="G42015100100601010" toTaz="G42015100100802020" type="truck_small" vehsPerHour="12.0" /><flow id