<?xml version="1.0" encoding="UTF-8"?>

<!-- generated on 2024-12-08 17:06:09 by Eclipse SUMO netedit Version 1.21.0
-->

<additional xmlns:xsi="http://www.w3.org/2001/XMLSchema-instance" xsi:noNamespaceSchemaLocation="http://sumo.dlr.de/xsd/additional_file.xsd">
    <!-- TAZs -->
    <taz id="G000551005003710010" shape="184241.62,371905.02 184164.66,371760.72 184153.85,371766.84 184229.62,371910.03 184241.62,371904.84 184241.62,371905.02" name="chengya(baijia-shuangliubei)" color="blue">
        <tazSink id="-4878.749" weight="1.00"/>
    </taz>
    <taz id="G000551005003720010" shape="184202.61,371825.45 184215.98,371817.81 184100.59,371607.69 184089.04,371615.24 184202.61,371825.45" name="chengya(shuangliubei-baijia)" color="blue">
        <tazSource id="-13404.176" weight="1.00"/>
    </taz>
    <taz id="G00055100501601010" shape="184984.75,373221.48 185010.50,373208.61 184923.48,373095.83 184907.87,373109.88 184983.97,373222.65 184984.75,373221.48" name="baijia toll (huangjing)" color="blue">
        <tazSource id="E15" weight="1.00"/>
    </taz>
    <taz id="G00055100501602010" shape="184839.19,373238.65 184768.55,373260.12 184742.80,373190.26 184816.55,373168.02 184839.58,373238.26 184839.19,373238.65" name="baijia toll (shuguang)" color="blue">
        <tazSink id="E17" weight="1.00"/>
    </taz>
    <taz id="G000551044001410010" shape="200186.13,396961.47 200254.81,397074.56 200243.13,397081.26 200176.75,396967.75 200185.84,396961.92 200186.13,396961.47" name="chengmian(xindu-baihelin)" color="blue">
        <tazSource id="-17302" weight="1.00"/>
    </taz>
    <taz id="G000551044001420010" shape="200182.82,396955.24 200110.14,396834.62 200120.78,396829.16 200193.89,396949.59 200182.63,396955.30 200182.82,396955.24" name="chengmian(baihelin-xindu)" color="blue">
        <tazSink id="-17350.523" weight="1.00"/>
    </taz>
    <taz id="G004251004002110010" shape="207794.62,385734.64 207550.99,385654.43 207547.01,385672.00 207789.97,385750.22 207793.62,385734.64 207794.62,385734.64" name="chengnan(yihe-luosiba)" color="blue">
        <tazSource id="-4424.699" weight="1.00"/>
    </taz>
    <taz id="G004251004002120010" shape="207794.62,385729.34 207551.98,385648.13 207556.63,385632.22 207798.59,385713.76 207793.62,385729.67 207794.62,385729.34" name="chengnan(luosiba-yihe)" color="blue">
        <tazSink id="-13408.1522" weight="1.00"/>
    </taz>
    <taz id="G00425100401601010" shape="199186.97,384434.07 198939.23,384394.78 198942.50,384376.22 199188.07,384420.15 199185.88,384433.25 199186.97,384434.07" name="chengnan chengdu toll" color="blue">
        <tazSource id="-11728" weight="1.00"/>
    </taz>
    <taz id="G00425100401602010" shape="198935.68,384414.69 199185.34,384453.44 199187.25,384436.25 198938.68,384397.50 198936.23,384415.24 198935.68,384414.69" name="chengnan chengdu toll" color="blue">
        <tazSink id="-10458" weight="1.00"/>
    </taz>
    <taz id="G031751001000110010" shape="173805.99,396393.36 174003.02,396208.30 174013.66,396220.73 173818.13,396404.26 173805.99,396393.36" name="chengguan(chengdu-pidu)" color="blue">
        <tazSink id="-16734.795" weight="1.00"/>
    </taz>
    <taz id="G031751001000120010" shape="173803.57,396391.13 174001.27,396205.27 173992.53,396195.68 173793.55,396380.84 173803.50,396391.17 173803.57,396391.13" name="chengguan(pidu-chengdu)" color="blue">
        <tazSource id="-13980.407" weight="1.00"/>
    </taz>
    <taz id="G42015100100101010" shape="195077.49,396299.52 195175.70,396411.73 195161.25,396424.15 195065.30,396312.39 195077.71,396301.10 195077.49,396299.52" name="dajian toll C" color="blue">
        <tazSource id="E2" weight="1.00"/>

    </taz>
    <taz id="G42015100100101020" shape="194597.24,395681.30 194682.70,395789.71 194694.26,395780.75 194611.98,395672.53 194596.68,395681.86 194597.24,395681.30" name="dajian toll A" color="blue">
        <tazSource id="E4" weight="1.00"/>

    </taz>
    <taz id="G42015100100102010" shape="195095.32,396296.36 195189.69,396406.54 195203.69,396395.93 195107.74,396282.82 195095.32,396296.59 195095.32,396296.36" name="dajian toll D" color="blue">
        <tazSink id="E3.25" weight="1.00"/>
    </taz>
    <taz id="G42015100100102020" shape="194589.96,395684.29 194678.40,395797.92 194663.84,395808.18 194577.14,395693.94 194589.79,395684.91 194589.96,395684.29" name="dajian toll B" color="blue">
        <tazSink id="E12" weight="1.00"/>
    </taz>
    <taz id="G42015100100201010" shape="200893.02,391692.65 200894.81,391671.95 200973.66,391680.25 200971.49,391699.17 200892.90,391692.01 200893.02,391692.65" name="chengjin toll" color="blue">
        <tazSource id="-14112" weight="1.00"/>
    </taz>
    <taz id="G42015100100202010" shape="200883.26,391666.62 200973.29,391677.03 200975.25,391660.60 200885.57,391651.46 200883.84,391666.73 200883.26,391666.62" name="chengjin toll" color="blue">

        <tazSink id="-2168" weight="1.00"/>
    </taz>
    <taz id="G42015100100301010" shape="197705.58,374155.59 197877.17,374029.43 197856.87,374004.30 197692.52,374135.77 197706.54,374156.56 197705.58,374155.59" name="chenglong toll A" color="blue">
        <tazSource id="-8564" weight="1.00"/>

    </taz>
    <taz id="G42015100100301020" shape="198611.98,373648.14 198625.42,373679.06 199007.76,373498.03 198994.45,373468.47 198610.79,373649.58 198611.98,373648.14" name="chenglong toll C" color="blue">
        <tazSource id="-10592" weight="1.00"/>

    </taz>
    <taz id="G42015100100302010" shape="197877.62,374034.31 198030.98,373937.78 198047.01,373963.92 197887.95,374056.17 197877.42,374035.10 197877.62,374034.31" name="chenglong toll B" color="blue">

        <tazSink id="-4058" weight="1.00"/>
    </taz>
    <taz id="G42015100100302020" shape="198366.02,373735.51 198583.76,373650.16 198570.99,373618.57 198357.28,373705.27 198365.35,373734.84 198366.02,373735.51" name="chenglong toll D" color="blue">
        <tazSink id="-6572" weight="1.00"/>
    </taz>
    <taz id="G42015100100401010" shape="189184.16,373202.90 189186.20,373101.42 189173.66,373101.08 189171.96,373202.90 189184.16,373203.07 189184.16,373202.90" name="tianfu toll" color="blue">
        <tazSource id="-2354" weight="1.00"/>

    </taz>
    <taz id="G42015100100402010" shape="189188.88,373203.21 189190.67,373070.11 189204.67,373070.62 189203.73,373203.12 189188.63,373202.93 189188.88,373203.21" name="tianfu toll" color="blue">

        <tazSink id="-11206" weight="1.00"/>
    </taz>
    <taz id="G42015100100501010" shape="186648.47,373480.95 186681.44,373480.95 186677.67,373391.19 186651.23,373393.24 186648.76,373481.42 186648.47,373480.95" name="jinchenghu toll A" color="blue">
        <tazSource id="-3732" weight="1.00"/>

    </taz>
    <taz id="G42015100100501020" shape="186628.82,373041.27 186653.25,373049.52 186680.65,372969.30 186657.54,372960.05 186629.15,373042.26 186628.82,373041.27" name="jinchenghu toll C" color="blue">
        <tazSource id="-9110" weight="1.00"/>

    </taz>
    <taz id="G42015100100502010" shape="186720.07,373463.59 186751.77,373458.64 186735.92,373379.40 186705.88,373386.33 186720.07,373463.59" name="jinchenghu toll B" color="blue">

        <tazSink id="-10544" weight="1.00"/>
    </taz>
    <taz id="G42015100100502020" shape="186567.74,373045.56 186590.19,373048.86 186606.37,372954.44 186582.93,372948.50 186568.07,373045.23 186567.74,373045.56" name="jinchenghu toll D" color="blue">

        <tazSink id="-5434" weight="1.00"/>
    </taz>
    <taz id="G42015100100601010" shape="185068.33,373746.68 185107.44,373730.01 185101.77,373719.60 185064.51,373736.84 185068.21,373747.02 185068.33,373746.68" name="chengya toll D" color="blue">
        <tazSource id="-6438.221" weight="1.00"/>

    </taz>
    <taz id="G42015100100601020" shape="185234.78,374313.97 185164.11,374114.52 185148.01,374122.16 185225.23,374317.52 185233.96,374313.70 185234.78,374313.97" name="chengya toll A" color="blue">
        <tazSource id="-11520.49" weight="1.00"/>

    </taz>
    <taz id="G42015100100602020" shape="185147.97,373852.08 185182.79,373756.04 185215.20,373777.95 185161.18,373859.28 185149.17,373851.78 185147.67,373851.18 185147.97,373852.08" name="chengya toll C" color="blue">

        <tazSink id="-10472" weight="1.00"/>
    </taz>
    <taz id="G42015100100701010" shape="183871.96,374625.87 183959.91,374553.71 183967.80,374563.41 183878.95,374635.34 183871.96,374625.42 183871.96,374625.87" name="jichang toll A" color="blue">
        <tazSource id="-9306" weight="1.00"/>

    </taz>
    <taz id="G42015100100701020" shape="184217.40,374299.06 184114.13,374358.13 184106.01,374328.37 184209.96,374284.62 184217.63,374298.83 184217.40,374299.06" name="jichang toll C" color="blue">
        <tazSource id="-7068" weight="1.00"/>

    </taz>
    <taz id="G42015100100702010" shape="184282.35,374280.56 184209.51,374344.15 184219.21,374356.78 184288.66,374288.46 184282.12,374280.34 184282.35,374280.56" name="jichang toll B" color="blue">

        <tazSink id="-9840" weight="1.00"/>
    </taz>
    <taz id="G42015100100702020" shape="183763.57,374684.84 183846.10,374613.59 183837.08,374601.64 183756.35,374676.50 183763.57,374684.39 183763.57,374684.84" name="jichang toll D" color="blue">

        <tazSink id="-3366" weight="1.00"/>
    </taz>
    <taz id="G42015100100801010" shape="201330.06,378352.37 201645.89,378275.75 201639.46,378251.18 201324.80,378332.48 201330.64,378352.37 201330.06,378352.37" name="chengyu toll A" color="blue">
        <tazSource id="-4708" weight="1.00"/>

    </taz>
    <taz id="G42015100100801020" shape="202609.63,378171.01 202906.86,378075.15 202893.35,378038.48 202601.91,378138.84 202610.27,378171.66 202609.63,378171.01" name="chengyu toll C" color="blue">
        <tazSource id="-13292" weight="1.00"/>

    </taz>
    <taz id="G42015100100802010" shape="201204.31,378445.36 201492.65,378354.71 201482.71,378323.71 201197.29,378420.21 201203.73,378445.95 201204.31,378445.36" name="chengyu toll B" color="blue">

        <tazSink id="-2772" weight="1.00"/>
    </taz>
    <taz id="G42015100100802020" shape="202747.31,378064.86 203098.58,377923.32 203084.43,377886.00 202737.66,378030.12 202747.31,378064.21 202747.31,378064.86" name="chengyu toll D" color="blue">

        <tazSink id="-1464" weight="1.00"/>
    </taz>
    <taz id="G42015100100901010" shape="192880.98,372503.14 192852.48,372396.54 192866.73,372393.41 192890.10,372499.43 192880.98,372502.57 192880.98,372503.14" name="chengren toll C" color="blue">
        <tazSource id="E0" weight="1.00"/>

    </taz>
    <taz id="G42015100100902010" shape="192788.64,372513.97 192760.71,372406.52 192748.74,372410.80 192778.95,372517.67 192788.64,372513.97" name="chengren toll D" color="blue">

        <tazSink id="E1" weight="1.00"/>
    </taz>
    <taz id="G42015100200101010" shape="193196.85,397311.17 193113.16,397240.35 193103.67,397252.72 193188.72,397321.50 193196.85,397311.00 193196.85,397311.17" name="huoyundadao toll" color="blue">
        <tazSource id="-2766" weight="1.00"/>

    </taz>
    <taz id="G42015100200102010" shape="193119.43,397241.03 193201.76,397307.95 193212.44,397296.43 193128.24,397229.68 193119.43,397241.37 193119.43,397241.03" name="huoyundadao toll" color="blue">

        <tazSink id="-16654" weight="1.00"/>
    </taz>
    <taz id="G42015100200201010" shape="189782.72,396689.64 189807.15,396689.31 189803.52,396560.55 189780.41,396562.20 189782.72,396690.30 189782.72,396689.64" name="beixin toll A" color="blue">
        <tazSource id="-14704" weight="1.00"/>

    </taz>
    <taz id="G42015100200201020" shape="189749.38,397396.87 189775.58,397397.14 189773.12,397246.80 189743.65,397247.62 189748.56,397397.14 189749.38,397396.87" color="blue">
        <tazSource id="-12776" weight="1.00"/>

    </taz>
    <taz id="G42015100200202010" shape="189731.22,396712.09 189755.32,396711.76 189753.34,396557.91 189727.59,396559.23 189731.55,396714.07 189731.22,396712.09" name="beixin toll B" color="blue">

        <tazSink id="-1632" weight="1.00"/>
    </taz>
    <taz id="G42015100200202020" shape="189793.86,397396.32 189791.67,397205.06 189821.69,397204.79 189822.78,397394.14 189793.86,397396.32" name="beixin toll D" color="blue">

        <tazSink id="-1338" weight="1.00"/>
    </taz>
    <taz id="G42015100200301010" shape="177322.25,393260.62 177450.21,393141.66 177460.04,393152.84 177332.07,393270.99 177322.79,393260.62 177322.25,393260.62" name="chengguan toll A" color="blue">
        <tazSource id="-16452" weight="1.00"/>

    </taz>
    <taz id="G42015100200301020" shape="176610.19,393817.16 176691.23,393729.57 176673.76,393714.29 176595.73,393807.33 176609.37,393817.70 176610.19,393817.16" name="chengguan toll C" color="blue">
        <tazSource id="-11986" weight="1.00"/>

    </taz>
    <taz id="G42015100200302010" shape="177296.67,393237.16 177422.69,393125.31 177405.99,393108.60 177280.33,393220.09 177296.67,393236.80 177296.67,393237.16" name="chengguan toll B" color="blue">

        <tazSink id="-1628" weight="1.00"/>
    </taz>
    <taz id="G42015100200302020" shape="176828.42,393756.28 176840.63,393771.80 176749.84,393839.81 176740.27,393825.94 176827.76,393757.27 176829.41,393757.27 176828.42,393756.28" name="chengguan toll D" color="blue">

        <tazSink id="E14" weight="1.00"/>
    </taz>
    <taz id="G42015100200401010" shape="177130.28,380685.04 177288.91,380743.04 177273.97,380772.92 177123.25,380712.28 177130.28,380685.48 177130.28,380685.04" name="chengxinpu toll A" color="blue">
        <tazSource id="-1830" weight="1.00"/>

    </taz>
    <taz id="G42015100200401020" shape="176325.75,380583.80 176518.65,380586.44 176519.09,380550.40 176326.18,380547.77 176326.62,380583.36 176325.75,380583.80" name="chengxinpu toll C" color="blue">
        <tazSource id="-8352" weight="1.00"/>

    </taz>
    <taz id="G42015100200402010" shape="177135.99,380652.08 177304.73,380685.04 177310.88,380653.40 177140.82,380621.76 177135.11,380652.96 177135.99,380652.08" name="chengxinpu toll B" color="blue">

        <tazSink id="-12520" weight="1.00"/>
    </taz>
    <taz id="G42015100200402020" shape="176322.23,380653.67 176479.54,380652.35 176477.79,380618.51 176319.59,380620.71 176322.67,380653.67 176322.23,380653.67" name="chengxinpu toll D" color="blue">

        <tazSink id="-13994" weight="1.00"/>
    </taz>
    <taz id="G42015100200501010" shape="177963.44,377744.14 177972.95,377724.57 178062.21,377764.64 178053.83,377782.16 177963.63,377743.95 177963.44,377744.14" name="shuangliu toll" color="blue">
        <tazSource id="-5336" weight="1.00"/>

    </taz>
    <taz id="G42015100200501020" shape="177202.69,377314.42 177324.50,377367.79 177334.15,377341.86 177211.16,377293.24 177202.69,377314.76 177202.69,377314.42" name="shuangliu toll" color="blue">
        <tazSource id="E6" weight="1.00"/>

    </taz>
    <taz id="G42015100200502010" shape="177865.70,377478.48 177872.52,377602.90 177908.26,377600.99 177901.44,377479.57 177866.52,377480.12 177865.70,377478.48" name="shuangliu toll" color="blue">

        <tazSink id="-3528.220" weight="1.00"/>
    </taz>
    <taz id="G42015100200502020" shape="177189.29,377349.25 177287.30,377391.81 177281.14,377404.55 177184.39,377360.03 177189.43,377349.67 177189.29,377349.25" name="shuangliu toll" color="blue">

        <tazSink id="E7" weight="1.00"/>
    </taz>
    <taz id="G42015100200601010" shape="175749.07,390224.66 175891.22,390247.58 175893.95,390227.93 175751.80,390205.83 175749.07,390225.20 175749.07,390224.66" name="yongning toll" color="blue">
        <tazSource id="E13" weight="1.00"/>

    </taz>
    <taz id="G42015100200602010" shape="175743.88,390251.12 175890.13,390274.04 175892.86,390251.12 175747.98,390229.84 175744.16,390251.40 175743.88,390251.12" name="yongning toll" color="blue">

        <tazSink id="E9" weight="1.00"/>
    </taz>
    <taz id="G42015100200701010" shape="181271.03,396255.98 181379.23,396058.88 181410.23,396079.94 181324.25,396278.79 181269.86,396255.98 181271.03,396255.98" name="shuyuandadao toll A" color="blue">
        <tazSource id="-4086" weight="1.00"/>

    </taz>
    <taz id="G42015100200701020" shape="180886.88,397010.68 180909.60,397021.31 180968.09,396891.77 180944.40,396880.17 180886.40,397012.13 180886.88,397010.68" name="shuyuandadao toll C" color="blue">
        <tazSource id="-12018" weight="1.00"/>

    </taz>
    <taz id="G42015100200702010" shape="181342.97,396052.45 181244.13,396248.97 181216.05,396232.59 181314.31,396037.24 181341.22,396052.45 181342.97,396052.45" name="shuyuandadao toll B" color="blue">

        <tazSink id="-9400" weight="1.00"/>
    </taz>
    <taz id="G42015100200702020" shape="180925.55,397025.18 180944.89,397034.85 181032.38,396845.85 181015.46,396838.60 180926.04,397024.70 180925.55,397025.18" name="shuyuandadao toll D" color="blue">

        <tazSink id="-8038" weight="1.00"/>
    </taz>
    <taz id="G42015100200801010" shape="176378.52,384625.59 176382.13,384647.50 176573.61,384623.49 176569.11,384602.48 176378.22,384626.49 176378.52,384625.59" name="guanghuadadao toll A" color="blue">
        <tazSource id="-9744" weight="1.00"/>

    </taz>
    <taz id="G42015100200801020" shape="175758.41,384640.47 175937.29,384632.67 175936.09,384606.26 175758.71,384613.16 175759.31,384640.77 175758.41,384640.47" name="guanghuadadao toll C" color="blue">
        <tazSource id="-14438" weight="1.00"/>

    </taz>
    <taz id="G42015100200802010" shape="176439.15,384586.87 176574.81,384568.26 176570.31,384546.95 176437.35,384564.06 176439.15,384586.87" name="guanghuadadao toll B" color="blue">

        <tazSink id="-7706" weight="1.00"/>
    </taz>
    <taz id="G42015100200802020" shape="175757.51,384685.19 175897.37,384678.59 175896.17,384653.08 175756.61,384661.18 175757.81,384685.49 175757.51,384685.19" name="guanghuadadao toll D" color="blue">

        <tazSink id="-1522" weight="1.00"/>
    </taz>
    <taz id="G421551001000110010" shape="193281.51,364296.49 193285.61,363952.14 193265.59,363952.79 193260.42,364299.65 193281.51,364296.49" name="chengzilu(raocheng-wanan)" color="blue">
        <tazSink id="-5834.3120" weight="1.00"/>
    </taz>
    <taz id="G421551001000120010" shape="193286.90,364294.48 193294.01,363934.70 193314.68,363937.29 193310.15,364296.42 193286.90,364294.48" name="chengzilu(wanan-raocheng)" color="blue">
        <tazSource id="-14248" weight="1.00"/>
    </taz>
    <taz id="G42155100100102010" shape="192954.49,373668.92 192969.43,373472.06 192943.94,373470.74 192928.12,373670.24 192954.49,373667.60 192954.49,373668.92" name="chengren chengdu toll" color="blue">

        <tazSink id="-10494" weight="1.00"/>
    </taz>
    <taz id="G42155100100101020" shape="192900.88,373665.41 192916.26,373423.72 192885.50,373421.97 192868.80,373664.09 192900.00,373665.85 192900.88,373665.41" name="chengren chengdu toll" color="blue">
        <tazSource id="-17216" weight="1.00"/>

    </taz>
    <taz id="G42015100100602010" shape="185348.73,374557.94 185287.34,374381.55 185298.33,374377.82 185358.55,374554.71 185348.48,374557.95 185348.73,374557.94" name="chengya yoll B" color="blue">

        <tazSink id="-17056.196" weight="1.00"/>
    </taz>
    <taz id="G501351001000210010" shape="205670.26,380816.33 205908.29,380822.23 205908.52,380836.27 205669.66,380829.81 205669.66,380816.66 205670.26,380816.33" name="yurong(longquanyi-raocheng)" color="blue">
        <tazSource id="-6132" weight="1.00"/>
    </taz>
    <taz id="G501351001000220010" shape="205504.82,380816.92 205740.14,380814.18 205739.86,380797.47 205504.82,380801.30 205505.37,380816.64 205504.82,380816.92" name="yurong(raocheng-longquanyi)" color="blue">
        <tazSink id="-13460" weight="1.00"/>
    </taz>
    <taz id="G50135100100101010" shape="201748.92,381862.16 201923.60,381831.65 201918.52,381805.87 201743.11,381840.00 201748.56,381862.52 201748.92,381862.16" name="chengdu toll(yurong) A" color="blue">
        <tazSource id="-3052" weight="1.00"/>

    </taz>
    <taz id="G50135100100101020" shape="202933.90,381838.75 202727.63,381845.57 202726.27,381825.93 202933.36,381819.38 202933.08,381838.21 202933.90,381838.75" name="chengdu toll(yurong) C" color="blue">
        <tazSource id="-10452" weight="1.00"/>

    </taz>
    <taz id="G50135100100102010" shape="201770.35,381956.58 201966.46,381924.26 201962.10,381899.56 201766.72,381934.43 201771.08,381956.58 201770.35,381956.58" name="chengdu toll(yurong) B" color="blue">

        <tazSink id="-11240" weight="1.00"/>
    </taz>
    <taz id="G50135100100102020" shape="203221.53,381638.52 203031.67,381663.78 203029.64,381650.03 203218.83,381625.00 203220.86,381638.30 203221.53,381638.52" name="chengdu toll(yurong) D" color="blue">

        <tazSink id="-16390" weight="1.00"/>
    </taz>
    <taz id="S000351002000210010" shape="196792.93,370900.20 196850.79,370788.41 196835.72,370778.16 196776.06,370892.67 196792.93,370900.20" name="tianfujichang(chengdu-tianfuxinxing)" color="blue">
        <tazSink id="-16394.1011" weight="1.00"/>
    </taz>
    <taz id="S000351002000220010" shape="196798.06,370901.10 196855.91,370789.61 196873.99,370800.46 196815.83,370908.34 196798.36,370900.50 196798.06,370901.10" name="tianfujichang(tianfuxinxing-chengdu)" color="blue">
        <tazSource id="-6126.3185" weight="1.00"/>
    </taz>
    <taz id="S000851001000110010" shape="170935.09,387445.85 171132.02,387463.39 171131.19,387476.81 170935.09,387459.06 170935.30,387446.26 170935.09,387445.85" name="chengwenqiong(chengdu-wenjiang)" color="blue">
        <tazSink id="-14968" weight="1.00"/>
    </taz>
    <taz id="S000851001000120010" shape="170950.85,387445.26 171132.91,387461.36 171133.95,387447.74 170952.29,387432.26 170951.47,387445.26 170950.85,387445.26" name="chengwenqiong(wenjiang-chengdu)" color="blue">
        <tazSource id="-16620" weight="1.00"/>
    </taz>
    <taz id="S00085100100101010" shape="176383.58,386565.29 176399.10,386585.10 176279.59,386680.84 176264.40,386659.38 176383.58,386565.62 176383.58,386565.29" name="chengdu toll (chengwenqiong)" color="blue">
        <tazSource id="-4168" weight="1.00"/>

    </taz>
    <taz id="S00085100100102010" shape="176380.94,386558.03 176260.11,386654.10 176247.56,386634.95 176367.74,386542.18 176379.62,386558.03 176380.94,386558.03" name="chengdu toll (chengwenqiong)" color="blue">

        <tazSink id="-15032" weight="1.00"/>
    </taz>
    <taz id="S010551001000510010" shape="183930.93,401457.89 184003.48,401236.28 184014.74,401241.23 183942.70,401460.35 183930.96,401457.10 183930.93,401457.89" name="chengpeng(chengdu-longqiao)" color="blue">
        <tazSink id="-16094" weight="1.00"/>
    </taz>
    <taz id="S010551001000520010" shape="183927.26,401457.46 183999.66,401233.87 183986.14,401229.37 183917.82,401454.58 183927.13,401456.91 183927.26,401457.46" name="chengpeng(longqiao-chengdu)" color="blue">
        <tazSource id="-13730.766" weight="1.00"/>
    </taz>
    <taz id="S01055100100401010" shape="187401.79,396589.24 187367.29,396743.22 187333.15,396734.50 187369.11,396579.80 187401.43,396588.88 187401.79,396589.24" name="chengdu toll (chengpeng)" color="blue">
        <tazSource id="-16484" weight="1.00"/>

    </taz>
    <taz id="S01055100100402010" shape="187226.39,396697.82 187261.61,396706.18 187295.39,396567.09 187265.61,396558.37 187227.11,396698.91 187226.39,396697.82" name="chengdu toll (chengpeng)" color="blue">

        <tazSink id="-14698" weight="1.00"/>
    </taz>
    <taz id="XA0455100100101010" shape="197898.09,391817.31 197930.30,391817.31 197911.56,391572.54 197879.35,391579.57 197898.09,391816.73 197898.09,391817.31" name="chengbei chengdu toll" color="blue">
        <tazSource id="-12694" weight="1.00"/>

        <tazSource id="-6750" weight="1.00"/>

    </taz>
    <taz id="XA0455100100102010" shape="197891.65,391817.90 197867.06,391584.84 197834.85,391589.52 197864.71,391822.00 197891.07,391818.48 197891.65,391817.90" name="chengbei chengdu toll" color="blue">

        <tazSink id="-10784" weight="1.00"/>

        <tazSink id="-14316" weight="1.00"/>
    </taz>
</additional>
